Version 4
SHEET 1 16420 1304
WIRE 16096 -10496 15488 -10496
WIRE -368 -10400 -464 -10400
WIRE -224 -10400 -288 -10400
WIRE -112 -10400 -224 -10400
WIRE 128 -10400 -16 -10400
WIRE 272 -10400 208 -10400
WIRE 384 -10400 272 -10400
WIRE 608 -10400 480 -10400
WIRE 752 -10400 688 -10400
WIRE 864 -10400 752 -10400
WIRE 1104 -10400 960 -10400
WIRE 1248 -10400 1184 -10400
WIRE 1360 -10400 1248 -10400
WIRE 1584 -10400 1456 -10400
WIRE 1728 -10400 1664 -10400
WIRE 1840 -10400 1728 -10400
WIRE 2080 -10400 1936 -10400
WIRE 2224 -10400 2160 -10400
WIRE 2336 -10400 2224 -10400
WIRE 2560 -10400 2432 -10400
WIRE 2704 -10400 2640 -10400
WIRE 2816 -10400 2704 -10400
WIRE 3056 -10400 2912 -10400
WIRE 3200 -10400 3136 -10400
WIRE 3312 -10400 3200 -10400
WIRE 3616 -10400 3408 -10400
WIRE 3824 -10400 3728 -10400
WIRE 3968 -10400 3904 -10400
WIRE 4080 -10400 3968 -10400
WIRE 4320 -10400 4176 -10400
WIRE 4464 -10400 4400 -10400
WIRE 4576 -10400 4464 -10400
WIRE 4800 -10400 4672 -10400
WIRE 4944 -10400 4880 -10400
WIRE 5056 -10400 4944 -10400
WIRE 5296 -10400 5152 -10400
WIRE 5440 -10400 5376 -10400
WIRE 5552 -10400 5440 -10400
WIRE 5776 -10400 5648 -10400
WIRE 5920 -10400 5856 -10400
WIRE 6032 -10400 5920 -10400
WIRE 6272 -10400 6128 -10400
WIRE 6416 -10400 6352 -10400
WIRE 6528 -10400 6416 -10400
WIRE 6752 -10400 6624 -10400
WIRE 6896 -10400 6832 -10400
WIRE 7008 -10400 6896 -10400
WIRE 7248 -10400 7104 -10400
WIRE 7392 -10400 7328 -10400
WIRE 7504 -10400 7392 -10400
WIRE 8016 -10400 7600 -10400
WIRE 8224 -10384 8128 -10384
WIRE 8368 -10384 8304 -10384
WIRE 8480 -10384 8368 -10384
WIRE 8720 -10384 8576 -10384
WIRE 8864 -10384 8800 -10384
WIRE 8976 -10384 8864 -10384
WIRE 9200 -10384 9072 -10384
WIRE 9344 -10384 9280 -10384
WIRE 9456 -10384 9344 -10384
WIRE 9696 -10384 9552 -10384
WIRE 9840 -10384 9776 -10384
WIRE 9952 -10384 9840 -10384
WIRE 10176 -10384 10048 -10384
WIRE 10320 -10384 10256 -10384
WIRE 10432 -10384 10320 -10384
WIRE 10672 -10384 10528 -10384
WIRE 10816 -10384 10752 -10384
WIRE 10928 -10384 10816 -10384
WIRE 11152 -10384 11024 -10384
WIRE 11296 -10384 11232 -10384
WIRE 11408 -10384 11296 -10384
WIRE 11648 -10384 11504 -10384
WIRE 11792 -10384 11728 -10384
WIRE 11904 -10384 11792 -10384
WIRE 12208 -10384 12000 -10384
WIRE 12416 -10384 12320 -10384
WIRE 12560 -10384 12496 -10384
WIRE 12672 -10384 12560 -10384
WIRE 12912 -10384 12768 -10384
WIRE 13056 -10384 12992 -10384
WIRE 13168 -10384 13056 -10384
WIRE 13392 -10384 13264 -10384
WIRE 13536 -10384 13472 -10384
WIRE 13648 -10384 13536 -10384
WIRE 13888 -10384 13744 -10384
WIRE 14032 -10384 13968 -10384
WIRE 14144 -10384 14032 -10384
WIRE 14368 -10384 14240 -10384
WIRE 14512 -10384 14448 -10384
WIRE 14624 -10384 14512 -10384
WIRE 14864 -10384 14720 -10384
WIRE 15008 -10384 14944 -10384
WIRE 15120 -10384 15008 -10384
WIRE 15344 -10384 15216 -10384
WIRE 15488 -10384 15488 -10496
WIRE 15488 -10384 15424 -10384
WIRE 15600 -10384 15488 -10384
WIRE 15840 -10384 15696 -10384
WIRE 15984 -10384 15920 -10384
WIRE 16096 -10384 15984 -10384
WIRE -224 -10336 -224 -10400
WIRE -16 -10336 -16 -10400
WIRE 272 -10336 272 -10400
WIRE 480 -10336 480 -10400
WIRE 752 -10336 752 -10400
WIRE 960 -10336 960 -10400
WIRE 1248 -10336 1248 -10400
WIRE 1456 -10336 1456 -10400
WIRE 1728 -10336 1728 -10400
WIRE 1936 -10336 1936 -10400
WIRE 2224 -10336 2224 -10400
WIRE 2432 -10336 2432 -10400
WIRE 2704 -10336 2704 -10400
WIRE 2912 -10336 2912 -10400
WIRE 3200 -10336 3200 -10400
WIRE 3408 -10336 3408 -10400
WIRE 3968 -10336 3968 -10400
WIRE 4176 -10336 4176 -10400
WIRE 4464 -10336 4464 -10400
WIRE 4672 -10336 4672 -10400
WIRE 4944 -10336 4944 -10400
WIRE 5152 -10336 5152 -10400
WIRE 5440 -10336 5440 -10400
WIRE 5648 -10336 5648 -10400
WIRE 5920 -10336 5920 -10400
WIRE 6128 -10336 6128 -10400
WIRE 6416 -10336 6416 -10400
WIRE 6624 -10336 6624 -10400
WIRE 6896 -10336 6896 -10400
WIRE 7104 -10336 7104 -10400
WIRE 7392 -10336 7392 -10400
WIRE 7600 -10336 7600 -10400
WIRE -112 -10320 -112 -10400
WIRE -64 -10320 -112 -10320
WIRE 384 -10320 384 -10400
WIRE 432 -10320 384 -10320
WIRE 864 -10320 864 -10400
WIRE 912 -10320 864 -10320
WIRE 1360 -10320 1360 -10400
WIRE 1408 -10320 1360 -10320
WIRE 1840 -10320 1840 -10400
WIRE 1888 -10320 1840 -10320
WIRE 2336 -10320 2336 -10400
WIRE 2384 -10320 2336 -10320
WIRE 2816 -10320 2816 -10400
WIRE 2864 -10320 2816 -10320
WIRE 3312 -10320 3312 -10400
WIRE 3360 -10320 3312 -10320
WIRE 4080 -10320 4080 -10400
WIRE 4128 -10320 4080 -10320
WIRE 4576 -10320 4576 -10400
WIRE 4624 -10320 4576 -10320
WIRE 5056 -10320 5056 -10400
WIRE 5104 -10320 5056 -10320
WIRE 5552 -10320 5552 -10400
WIRE 5600 -10320 5552 -10320
WIRE 6032 -10320 6032 -10400
WIRE 6080 -10320 6032 -10320
WIRE 6528 -10320 6528 -10400
WIRE 6576 -10320 6528 -10320
WIRE 7008 -10320 7008 -10400
WIRE 7056 -10320 7008 -10320
WIRE 7504 -10320 7504 -10400
WIRE 7552 -10320 7504 -10320
WIRE 8368 -10320 8368 -10384
WIRE 8576 -10320 8576 -10384
WIRE 8864 -10320 8864 -10384
WIRE 9072 -10320 9072 -10384
WIRE 9344 -10320 9344 -10384
WIRE 9552 -10320 9552 -10384
WIRE 9840 -10320 9840 -10384
WIRE 10048 -10320 10048 -10384
WIRE 10320 -10320 10320 -10384
WIRE 10528 -10320 10528 -10384
WIRE 10816 -10320 10816 -10384
WIRE 11024 -10320 11024 -10384
WIRE 11296 -10320 11296 -10384
WIRE 11504 -10320 11504 -10384
WIRE 11792 -10320 11792 -10384
WIRE 12000 -10320 12000 -10384
WIRE 12560 -10320 12560 -10384
WIRE 12768 -10320 12768 -10384
WIRE 13056 -10320 13056 -10384
WIRE 13264 -10320 13264 -10384
WIRE 13536 -10320 13536 -10384
WIRE 13744 -10320 13744 -10384
WIRE 14032 -10320 14032 -10384
WIRE 14240 -10320 14240 -10384
WIRE 14512 -10320 14512 -10384
WIRE 14720 -10320 14720 -10384
WIRE 15008 -10320 15008 -10384
WIRE 15216 -10320 15216 -10384
WIRE 15488 -10320 15488 -10384
WIRE 15696 -10320 15696 -10384
WIRE 15984 -10320 15984 -10384
WIRE 8480 -10304 8480 -10384
WIRE 8528 -10304 8480 -10304
WIRE 8976 -10304 8976 -10384
WIRE 9024 -10304 8976 -10304
WIRE 9456 -10304 9456 -10384
WIRE 9504 -10304 9456 -10304
WIRE 9952 -10304 9952 -10384
WIRE 10000 -10304 9952 -10304
WIRE 10432 -10304 10432 -10384
WIRE 10480 -10304 10432 -10304
WIRE 10928 -10304 10928 -10384
WIRE 10976 -10304 10928 -10304
WIRE 11408 -10304 11408 -10384
WIRE 11456 -10304 11408 -10304
WIRE 11904 -10304 11904 -10384
WIRE 11952 -10304 11904 -10304
WIRE 12672 -10304 12672 -10384
WIRE 12720 -10304 12672 -10304
WIRE 13168 -10304 13168 -10384
WIRE 13216 -10304 13168 -10304
WIRE 13648 -10304 13648 -10384
WIRE 13696 -10304 13648 -10304
WIRE 14144 -10304 14144 -10384
WIRE 14192 -10304 14144 -10304
WIRE 14624 -10304 14624 -10384
WIRE 14672 -10304 14624 -10304
WIRE 15120 -10304 15120 -10384
WIRE 15168 -10304 15120 -10304
WIRE 15600 -10304 15600 -10384
WIRE 15648 -10304 15600 -10304
WIRE -224 -10240 -224 -10272
WIRE 272 -10240 272 -10272
WIRE 752 -10240 752 -10272
WIRE 1248 -10240 1248 -10272
WIRE 1728 -10240 1728 -10272
WIRE 2224 -10240 2224 -10272
WIRE 2704 -10240 2704 -10272
WIRE 3200 -10240 3200 -10272
WIRE 3968 -10240 3968 -10272
WIRE 4464 -10240 4464 -10272
WIRE 4944 -10240 4944 -10272
WIRE 5440 -10240 5440 -10272
WIRE 5920 -10240 5920 -10272
WIRE 6416 -10240 6416 -10272
WIRE 6896 -10240 6896 -10272
WIRE 7392 -10240 7392 -10272
WIRE 8368 -10224 8368 -10256
WIRE 8864 -10224 8864 -10256
WIRE 9344 -10224 9344 -10256
WIRE 9840 -10224 9840 -10256
WIRE 10320 -10224 10320 -10256
WIRE 10816 -10224 10816 -10256
WIRE 11296 -10224 11296 -10256
WIRE 11792 -10224 11792 -10256
WIRE 12560 -10224 12560 -10256
WIRE 13056 -10224 13056 -10256
WIRE 13536 -10224 13536 -10256
WIRE 14032 -10224 14032 -10256
WIRE 14512 -10224 14512 -10256
WIRE 15008 -10224 15008 -10256
WIRE 15488 -10224 15488 -10256
WIRE 15984 -10224 15984 -10256
WIRE -16 -10208 -16 -10256
WIRE 480 -10208 480 -10256
WIRE 960 -10208 960 -10256
WIRE 1456 -10208 1456 -10256
WIRE 1936 -10208 1936 -10256
WIRE 2432 -10208 2432 -10256
WIRE 2912 -10208 2912 -10256
WIRE 3408 -10208 3408 -10256
WIRE 4176 -10208 4176 -10256
WIRE 4672 -10208 4672 -10256
WIRE 5152 -10208 5152 -10256
WIRE 5648 -10208 5648 -10256
WIRE 6128 -10208 6128 -10256
WIRE 6624 -10208 6624 -10256
WIRE 7104 -10208 7104 -10256
WIRE 7600 -10208 7600 -10256
WIRE 8576 -10192 8576 -10240
WIRE 9072 -10192 9072 -10240
WIRE 9552 -10192 9552 -10240
WIRE 10048 -10192 10048 -10240
WIRE 10528 -10192 10528 -10240
WIRE 11024 -10192 11024 -10240
WIRE 11504 -10192 11504 -10240
WIRE 12000 -10192 12000 -10240
WIRE 12768 -10192 12768 -10240
WIRE 13264 -10192 13264 -10240
WIRE 13744 -10192 13744 -10240
WIRE 14240 -10192 14240 -10240
WIRE 14720 -10192 14720 -10240
WIRE 15216 -10192 15216 -10240
WIRE 15696 -10192 15696 -10240
WIRE -464 -10144 -464 -10400
WIRE 3536 -10144 -464 -10144
WIRE 3728 -10144 3728 -10400
WIRE 7728 -10144 3728 -10144
WIRE 8128 -10128 8128 -10384
WIRE 12128 -10128 8128 -10128
WIRE 12320 -10128 12320 -10384
WIRE 16320 -10128 12320 -10128
WIRE -368 -10048 -464 -10048
WIRE -224 -10048 -288 -10048
WIRE -112 -10048 -224 -10048
WIRE 128 -10048 -16 -10048
WIRE 272 -10048 208 -10048
WIRE 384 -10048 272 -10048
WIRE 608 -10048 480 -10048
WIRE 752 -10048 688 -10048
WIRE 864 -10048 752 -10048
WIRE 1104 -10048 960 -10048
WIRE 1248 -10048 1184 -10048
WIRE 1360 -10048 1248 -10048
WIRE 1584 -10048 1456 -10048
WIRE 1728 -10048 1664 -10048
WIRE 1840 -10048 1728 -10048
WIRE 2080 -10048 1936 -10048
WIRE 2224 -10048 2160 -10048
WIRE 2336 -10048 2224 -10048
WIRE 2560 -10048 2432 -10048
WIRE 2704 -10048 2640 -10048
WIRE 2816 -10048 2704 -10048
WIRE 3056 -10048 2912 -10048
WIRE 3200 -10048 3136 -10048
WIRE 3312 -10048 3200 -10048
WIRE 3536 -10048 3536 -10144
WIRE 3536 -10048 3408 -10048
WIRE 3824 -10048 3728 -10048
WIRE 3968 -10048 3904 -10048
WIRE 4080 -10048 3968 -10048
WIRE 4320 -10048 4176 -10048
WIRE 4464 -10048 4400 -10048
WIRE 4576 -10048 4464 -10048
WIRE 4800 -10048 4672 -10048
WIRE 4944 -10048 4880 -10048
WIRE 5056 -10048 4944 -10048
WIRE 5296 -10048 5152 -10048
WIRE 5440 -10048 5376 -10048
WIRE 5552 -10048 5440 -10048
WIRE 5776 -10048 5648 -10048
WIRE 5920 -10048 5856 -10048
WIRE 6032 -10048 5920 -10048
WIRE 6272 -10048 6128 -10048
WIRE 6416 -10048 6352 -10048
WIRE 6528 -10048 6416 -10048
WIRE 6752 -10048 6624 -10048
WIRE 6896 -10048 6832 -10048
WIRE 7008 -10048 6896 -10048
WIRE 7248 -10048 7104 -10048
WIRE 7392 -10048 7328 -10048
WIRE 7504 -10048 7392 -10048
WIRE 7728 -10048 7728 -10144
WIRE 7728 -10048 7600 -10048
WIRE 8224 -10032 8128 -10032
WIRE 8368 -10032 8304 -10032
WIRE 8480 -10032 8368 -10032
WIRE 8720 -10032 8576 -10032
WIRE 8864 -10032 8800 -10032
WIRE 8976 -10032 8864 -10032
WIRE 9200 -10032 9072 -10032
WIRE 9344 -10032 9280 -10032
WIRE 9456 -10032 9344 -10032
WIRE 9696 -10032 9552 -10032
WIRE 9840 -10032 9776 -10032
WIRE 9952 -10032 9840 -10032
WIRE 10176 -10032 10048 -10032
WIRE 10320 -10032 10256 -10032
WIRE 10432 -10032 10320 -10032
WIRE 10672 -10032 10528 -10032
WIRE 10816 -10032 10752 -10032
WIRE 10928 -10032 10816 -10032
WIRE 11152 -10032 11024 -10032
WIRE 11296 -10032 11232 -10032
WIRE 11408 -10032 11296 -10032
WIRE 11648 -10032 11504 -10032
WIRE 11792 -10032 11728 -10032
WIRE 11904 -10032 11792 -10032
WIRE 12128 -10032 12128 -10128
WIRE 12128 -10032 12000 -10032
WIRE 12416 -10032 12320 -10032
WIRE 12560 -10032 12496 -10032
WIRE 12672 -10032 12560 -10032
WIRE 12912 -10032 12768 -10032
WIRE 13056 -10032 12992 -10032
WIRE 13168 -10032 13056 -10032
WIRE 13392 -10032 13264 -10032
WIRE 13536 -10032 13472 -10032
WIRE 13648 -10032 13536 -10032
WIRE 13888 -10032 13744 -10032
WIRE 14032 -10032 13968 -10032
WIRE 14144 -10032 14032 -10032
WIRE 14368 -10032 14240 -10032
WIRE 14512 -10032 14448 -10032
WIRE 14624 -10032 14512 -10032
WIRE 14864 -10032 14720 -10032
WIRE 15008 -10032 14944 -10032
WIRE 15120 -10032 15008 -10032
WIRE 15344 -10032 15216 -10032
WIRE 15488 -10032 15424 -10032
WIRE 15600 -10032 15488 -10032
WIRE 15840 -10032 15696 -10032
WIRE 15984 -10032 15920 -10032
WIRE 16096 -10032 15984 -10032
WIRE 16320 -10032 16320 -10128
WIRE 16320 -10032 16192 -10032
WIRE -224 -9984 -224 -10048
WIRE -16 -9984 -16 -10048
WIRE 272 -9984 272 -10048
WIRE 480 -9984 480 -10048
WIRE 752 -9984 752 -10048
WIRE 960 -9984 960 -10048
WIRE 1248 -9984 1248 -10048
WIRE 1456 -9984 1456 -10048
WIRE 1728 -9984 1728 -10048
WIRE 1936 -9984 1936 -10048
WIRE 2224 -9984 2224 -10048
WIRE 2432 -9984 2432 -10048
WIRE 2704 -9984 2704 -10048
WIRE 2912 -9984 2912 -10048
WIRE 3200 -9984 3200 -10048
WIRE 3408 -9984 3408 -10048
WIRE 3968 -9984 3968 -10048
WIRE 4176 -9984 4176 -10048
WIRE 4464 -9984 4464 -10048
WIRE 4672 -9984 4672 -10048
WIRE 4944 -9984 4944 -10048
WIRE 5152 -9984 5152 -10048
WIRE 5440 -9984 5440 -10048
WIRE 5648 -9984 5648 -10048
WIRE 5920 -9984 5920 -10048
WIRE 6128 -9984 6128 -10048
WIRE 6416 -9984 6416 -10048
WIRE 6624 -9984 6624 -10048
WIRE 6896 -9984 6896 -10048
WIRE 7104 -9984 7104 -10048
WIRE 7392 -9984 7392 -10048
WIRE 7600 -9984 7600 -10048
WIRE -112 -9968 -112 -10048
WIRE -64 -9968 -112 -9968
WIRE 384 -9968 384 -10048
WIRE 432 -9968 384 -9968
WIRE 864 -9968 864 -10048
WIRE 912 -9968 864 -9968
WIRE 1360 -9968 1360 -10048
WIRE 1408 -9968 1360 -9968
WIRE 1840 -9968 1840 -10048
WIRE 1888 -9968 1840 -9968
WIRE 2336 -9968 2336 -10048
WIRE 2384 -9968 2336 -9968
WIRE 2816 -9968 2816 -10048
WIRE 2864 -9968 2816 -9968
WIRE 3312 -9968 3312 -10048
WIRE 3360 -9968 3312 -9968
WIRE 4080 -9968 4080 -10048
WIRE 4128 -9968 4080 -9968
WIRE 4576 -9968 4576 -10048
WIRE 4624 -9968 4576 -9968
WIRE 5056 -9968 5056 -10048
WIRE 5104 -9968 5056 -9968
WIRE 5552 -9968 5552 -10048
WIRE 5600 -9968 5552 -9968
WIRE 6032 -9968 6032 -10048
WIRE 6080 -9968 6032 -9968
WIRE 6528 -9968 6528 -10048
WIRE 6576 -9968 6528 -9968
WIRE 7008 -9968 7008 -10048
WIRE 7056 -9968 7008 -9968
WIRE 7504 -9968 7504 -10048
WIRE 7552 -9968 7504 -9968
WIRE 8368 -9968 8368 -10032
WIRE 8576 -9968 8576 -10032
WIRE 8864 -9968 8864 -10032
WIRE 9072 -9968 9072 -10032
WIRE 9344 -9968 9344 -10032
WIRE 9552 -9968 9552 -10032
WIRE 9840 -9968 9840 -10032
WIRE 10048 -9968 10048 -10032
WIRE 10320 -9968 10320 -10032
WIRE 10528 -9968 10528 -10032
WIRE 10816 -9968 10816 -10032
WIRE 11024 -9968 11024 -10032
WIRE 11296 -9968 11296 -10032
WIRE 11504 -9968 11504 -10032
WIRE 11792 -9968 11792 -10032
WIRE 12000 -9968 12000 -10032
WIRE 12560 -9968 12560 -10032
WIRE 12768 -9968 12768 -10032
WIRE 13056 -9968 13056 -10032
WIRE 13264 -9968 13264 -10032
WIRE 13536 -9968 13536 -10032
WIRE 13744 -9968 13744 -10032
WIRE 14032 -9968 14032 -10032
WIRE 14240 -9968 14240 -10032
WIRE 14512 -9968 14512 -10032
WIRE 14720 -9968 14720 -10032
WIRE 15008 -9968 15008 -10032
WIRE 15216 -9968 15216 -10032
WIRE 15488 -9968 15488 -10032
WIRE 15696 -9968 15696 -10032
WIRE 15984 -9968 15984 -10032
WIRE 16192 -9968 16192 -10032
WIRE 8480 -9952 8480 -10032
WIRE 8528 -9952 8480 -9952
WIRE 8976 -9952 8976 -10032
WIRE 9024 -9952 8976 -9952
WIRE 9456 -9952 9456 -10032
WIRE 9504 -9952 9456 -9952
WIRE 9952 -9952 9952 -10032
WIRE 10000 -9952 9952 -9952
WIRE 10432 -9952 10432 -10032
WIRE 10480 -9952 10432 -9952
WIRE 10928 -9952 10928 -10032
WIRE 10976 -9952 10928 -9952
WIRE 11408 -9952 11408 -10032
WIRE 11456 -9952 11408 -9952
WIRE 11904 -9952 11904 -10032
WIRE 11952 -9952 11904 -9952
WIRE 12672 -9952 12672 -10032
WIRE 12720 -9952 12672 -9952
WIRE 13168 -9952 13168 -10032
WIRE 13216 -9952 13168 -9952
WIRE 13648 -9952 13648 -10032
WIRE 13696 -9952 13648 -9952
WIRE 14144 -9952 14144 -10032
WIRE 14192 -9952 14144 -9952
WIRE 14624 -9952 14624 -10032
WIRE 14672 -9952 14624 -9952
WIRE 15120 -9952 15120 -10032
WIRE 15168 -9952 15120 -9952
WIRE 15600 -9952 15600 -10032
WIRE 15648 -9952 15600 -9952
WIRE 16096 -9952 16096 -10032
WIRE 16144 -9952 16096 -9952
WIRE -224 -9888 -224 -9920
WIRE 272 -9888 272 -9920
WIRE 752 -9888 752 -9920
WIRE 1248 -9888 1248 -9920
WIRE 1728 -9888 1728 -9920
WIRE 2224 -9888 2224 -9920
WIRE 2704 -9888 2704 -9920
WIRE 3200 -9888 3200 -9920
WIRE 3968 -9888 3968 -9920
WIRE 4464 -9888 4464 -9920
WIRE 4944 -9888 4944 -9920
WIRE 5440 -9888 5440 -9920
WIRE 5920 -9888 5920 -9920
WIRE 6416 -9888 6416 -9920
WIRE 6896 -9888 6896 -9920
WIRE 7392 -9888 7392 -9920
WIRE 8368 -9872 8368 -9904
WIRE 8864 -9872 8864 -9904
WIRE 9344 -9872 9344 -9904
WIRE 9840 -9872 9840 -9904
WIRE 10320 -9872 10320 -9904
WIRE 10816 -9872 10816 -9904
WIRE 11296 -9872 11296 -9904
WIRE 11792 -9872 11792 -9904
WIRE 12560 -9872 12560 -9904
WIRE 13056 -9872 13056 -9904
WIRE 13536 -9872 13536 -9904
WIRE 14032 -9872 14032 -9904
WIRE 14512 -9872 14512 -9904
WIRE 15008 -9872 15008 -9904
WIRE 15488 -9872 15488 -9904
WIRE 15984 -9872 15984 -9904
WIRE -16 -9856 -16 -9904
WIRE 480 -9856 480 -9904
WIRE 960 -9856 960 -9904
WIRE 1456 -9856 1456 -9904
WIRE 1936 -9856 1936 -9904
WIRE 2432 -9856 2432 -9904
WIRE 2912 -9856 2912 -9904
WIRE 3408 -9856 3408 -9904
WIRE 4176 -9856 4176 -9904
WIRE 4672 -9856 4672 -9904
WIRE 5152 -9856 5152 -9904
WIRE 5648 -9856 5648 -9904
WIRE 6128 -9856 6128 -9904
WIRE 6624 -9856 6624 -9904
WIRE 7104 -9856 7104 -9904
WIRE 7600 -9856 7600 -9904
WIRE 8576 -9840 8576 -9888
WIRE 9072 -9840 9072 -9888
WIRE 9552 -9840 9552 -9888
WIRE 10048 -9840 10048 -9888
WIRE 10528 -9840 10528 -9888
WIRE 11024 -9840 11024 -9888
WIRE 11504 -9840 11504 -9888
WIRE 12000 -9840 12000 -9888
WIRE 12768 -9840 12768 -9888
WIRE 13264 -9840 13264 -9888
WIRE 13744 -9840 13744 -9888
WIRE 14240 -9840 14240 -9888
WIRE 14720 -9840 14720 -9888
WIRE 15216 -9840 15216 -9888
WIRE 15696 -9840 15696 -9888
WIRE 16192 -9840 16192 -9888
WIRE -464 -9824 -464 -10048
WIRE 3536 -9824 -464 -9824
WIRE 3728 -9824 3728 -10048
WIRE 7728 -9824 3728 -9824
WIRE 8128 -9808 8128 -10032
WIRE 12128 -9808 8128 -9808
WIRE 12320 -9808 12320 -10032
WIRE 16320 -9808 12320 -9808
WIRE -368 -9712 -464 -9712
WIRE -224 -9712 -288 -9712
WIRE -112 -9712 -224 -9712
WIRE 128 -9712 -16 -9712
WIRE 272 -9712 208 -9712
WIRE 384 -9712 272 -9712
WIRE 608 -9712 480 -9712
WIRE 752 -9712 688 -9712
WIRE 864 -9712 752 -9712
WIRE 1104 -9712 960 -9712
WIRE 1248 -9712 1184 -9712
WIRE 1360 -9712 1248 -9712
WIRE 1584 -9712 1456 -9712
WIRE 1728 -9712 1664 -9712
WIRE 1840 -9712 1728 -9712
WIRE 2080 -9712 1936 -9712
WIRE 2224 -9712 2160 -9712
WIRE 2336 -9712 2224 -9712
WIRE 2560 -9712 2432 -9712
WIRE 2704 -9712 2640 -9712
WIRE 2816 -9712 2704 -9712
WIRE 3056 -9712 2912 -9712
WIRE 3200 -9712 3136 -9712
WIRE 3312 -9712 3200 -9712
WIRE 3536 -9712 3536 -9824
WIRE 3536 -9712 3408 -9712
WIRE 3824 -9712 3728 -9712
WIRE 3968 -9712 3904 -9712
WIRE 4080 -9712 3968 -9712
WIRE 4320 -9712 4176 -9712
WIRE 4464 -9712 4400 -9712
WIRE 4576 -9712 4464 -9712
WIRE 4800 -9712 4672 -9712
WIRE 4944 -9712 4880 -9712
WIRE 5056 -9712 4944 -9712
WIRE 5296 -9712 5152 -9712
WIRE 5440 -9712 5376 -9712
WIRE 5552 -9712 5440 -9712
WIRE 5776 -9712 5648 -9712
WIRE 5920 -9712 5856 -9712
WIRE 6032 -9712 5920 -9712
WIRE 6272 -9712 6128 -9712
WIRE 6416 -9712 6352 -9712
WIRE 6528 -9712 6416 -9712
WIRE 6752 -9712 6624 -9712
WIRE 6896 -9712 6832 -9712
WIRE 7008 -9712 6896 -9712
WIRE 7248 -9712 7104 -9712
WIRE 7392 -9712 7328 -9712
WIRE 7504 -9712 7392 -9712
WIRE 7728 -9712 7728 -9824
WIRE 7728 -9712 7600 -9712
WIRE 8224 -9696 8128 -9696
WIRE 8368 -9696 8304 -9696
WIRE 8480 -9696 8368 -9696
WIRE 8720 -9696 8576 -9696
WIRE 8864 -9696 8800 -9696
WIRE 8976 -9696 8864 -9696
WIRE 9200 -9696 9072 -9696
WIRE 9344 -9696 9280 -9696
WIRE 9456 -9696 9344 -9696
WIRE 9696 -9696 9552 -9696
WIRE 9840 -9696 9776 -9696
WIRE 9952 -9696 9840 -9696
WIRE 10176 -9696 10048 -9696
WIRE 10320 -9696 10256 -9696
WIRE 10432 -9696 10320 -9696
WIRE 10672 -9696 10528 -9696
WIRE 10816 -9696 10752 -9696
WIRE 10928 -9696 10816 -9696
WIRE 11152 -9696 11024 -9696
WIRE 11296 -9696 11232 -9696
WIRE 11408 -9696 11296 -9696
WIRE 11648 -9696 11504 -9696
WIRE 11792 -9696 11728 -9696
WIRE 11904 -9696 11792 -9696
WIRE 12128 -9696 12128 -9808
WIRE 12128 -9696 12000 -9696
WIRE 12416 -9696 12320 -9696
WIRE 12560 -9696 12496 -9696
WIRE 12672 -9696 12560 -9696
WIRE 12912 -9696 12768 -9696
WIRE 13056 -9696 12992 -9696
WIRE 13168 -9696 13056 -9696
WIRE 13392 -9696 13264 -9696
WIRE 13536 -9696 13472 -9696
WIRE 13648 -9696 13536 -9696
WIRE 13888 -9696 13744 -9696
WIRE 14032 -9696 13968 -9696
WIRE 14144 -9696 14032 -9696
WIRE 14368 -9696 14240 -9696
WIRE 14512 -9696 14448 -9696
WIRE 14624 -9696 14512 -9696
WIRE 14864 -9696 14720 -9696
WIRE 15008 -9696 14944 -9696
WIRE 15120 -9696 15008 -9696
WIRE 15344 -9696 15216 -9696
WIRE 15488 -9696 15424 -9696
WIRE 15600 -9696 15488 -9696
WIRE 15840 -9696 15696 -9696
WIRE 15984 -9696 15920 -9696
WIRE 16096 -9696 15984 -9696
WIRE 16320 -9696 16320 -9808
WIRE 16320 -9696 16192 -9696
WIRE -224 -9648 -224 -9712
WIRE -16 -9648 -16 -9712
WIRE 272 -9648 272 -9712
WIRE 480 -9648 480 -9712
WIRE 752 -9648 752 -9712
WIRE 960 -9648 960 -9712
WIRE 1248 -9648 1248 -9712
WIRE 1456 -9648 1456 -9712
WIRE 1728 -9648 1728 -9712
WIRE 1936 -9648 1936 -9712
WIRE 2224 -9648 2224 -9712
WIRE 2432 -9648 2432 -9712
WIRE 2704 -9648 2704 -9712
WIRE 2912 -9648 2912 -9712
WIRE 3200 -9648 3200 -9712
WIRE 3408 -9648 3408 -9712
WIRE 3968 -9648 3968 -9712
WIRE 4176 -9648 4176 -9712
WIRE 4464 -9648 4464 -9712
WIRE 4672 -9648 4672 -9712
WIRE 4944 -9648 4944 -9712
WIRE 5152 -9648 5152 -9712
WIRE 5440 -9648 5440 -9712
WIRE 5648 -9648 5648 -9712
WIRE 5920 -9648 5920 -9712
WIRE 6128 -9648 6128 -9712
WIRE 6416 -9648 6416 -9712
WIRE 6624 -9648 6624 -9712
WIRE 6896 -9648 6896 -9712
WIRE 7104 -9648 7104 -9712
WIRE 7392 -9648 7392 -9712
WIRE 7600 -9648 7600 -9712
WIRE -112 -9632 -112 -9712
WIRE -64 -9632 -112 -9632
WIRE 384 -9632 384 -9712
WIRE 432 -9632 384 -9632
WIRE 864 -9632 864 -9712
WIRE 912 -9632 864 -9632
WIRE 1360 -9632 1360 -9712
WIRE 1408 -9632 1360 -9632
WIRE 1840 -9632 1840 -9712
WIRE 1888 -9632 1840 -9632
WIRE 2336 -9632 2336 -9712
WIRE 2384 -9632 2336 -9632
WIRE 2816 -9632 2816 -9712
WIRE 2864 -9632 2816 -9632
WIRE 3312 -9632 3312 -9712
WIRE 3360 -9632 3312 -9632
WIRE 4080 -9632 4080 -9712
WIRE 4128 -9632 4080 -9632
WIRE 4576 -9632 4576 -9712
WIRE 4624 -9632 4576 -9632
WIRE 5056 -9632 5056 -9712
WIRE 5104 -9632 5056 -9632
WIRE 5552 -9632 5552 -9712
WIRE 5600 -9632 5552 -9632
WIRE 6032 -9632 6032 -9712
WIRE 6080 -9632 6032 -9632
WIRE 6528 -9632 6528 -9712
WIRE 6576 -9632 6528 -9632
WIRE 7008 -9632 7008 -9712
WIRE 7056 -9632 7008 -9632
WIRE 7504 -9632 7504 -9712
WIRE 7552 -9632 7504 -9632
WIRE 8368 -9632 8368 -9696
WIRE 8576 -9632 8576 -9696
WIRE 8864 -9632 8864 -9696
WIRE 9072 -9632 9072 -9696
WIRE 9344 -9632 9344 -9696
WIRE 9552 -9632 9552 -9696
WIRE 9840 -9632 9840 -9696
WIRE 10048 -9632 10048 -9696
WIRE 10320 -9632 10320 -9696
WIRE 10528 -9632 10528 -9696
WIRE 10816 -9632 10816 -9696
WIRE 11024 -9632 11024 -9696
WIRE 11296 -9632 11296 -9696
WIRE 11504 -9632 11504 -9696
WIRE 11792 -9632 11792 -9696
WIRE 12000 -9632 12000 -9696
WIRE 12560 -9632 12560 -9696
WIRE 12768 -9632 12768 -9696
WIRE 13056 -9632 13056 -9696
WIRE 13264 -9632 13264 -9696
WIRE 13536 -9632 13536 -9696
WIRE 13744 -9632 13744 -9696
WIRE 14032 -9632 14032 -9696
WIRE 14240 -9632 14240 -9696
WIRE 14512 -9632 14512 -9696
WIRE 14720 -9632 14720 -9696
WIRE 15008 -9632 15008 -9696
WIRE 15216 -9632 15216 -9696
WIRE 15488 -9632 15488 -9696
WIRE 15696 -9632 15696 -9696
WIRE 15984 -9632 15984 -9696
WIRE 16192 -9632 16192 -9696
WIRE 8480 -9616 8480 -9696
WIRE 8528 -9616 8480 -9616
WIRE 8976 -9616 8976 -9696
WIRE 9024 -9616 8976 -9616
WIRE 9456 -9616 9456 -9696
WIRE 9504 -9616 9456 -9616
WIRE 9952 -9616 9952 -9696
WIRE 10000 -9616 9952 -9616
WIRE 10432 -9616 10432 -9696
WIRE 10480 -9616 10432 -9616
WIRE 10928 -9616 10928 -9696
WIRE 10976 -9616 10928 -9616
WIRE 11408 -9616 11408 -9696
WIRE 11456 -9616 11408 -9616
WIRE 11904 -9616 11904 -9696
WIRE 11952 -9616 11904 -9616
WIRE 12672 -9616 12672 -9696
WIRE 12720 -9616 12672 -9616
WIRE 13168 -9616 13168 -9696
WIRE 13216 -9616 13168 -9616
WIRE 13648 -9616 13648 -9696
WIRE 13696 -9616 13648 -9616
WIRE 14144 -9616 14144 -9696
WIRE 14192 -9616 14144 -9616
WIRE 14624 -9616 14624 -9696
WIRE 14672 -9616 14624 -9616
WIRE 15120 -9616 15120 -9696
WIRE 15168 -9616 15120 -9616
WIRE 15600 -9616 15600 -9696
WIRE 15648 -9616 15600 -9616
WIRE 16096 -9616 16096 -9696
WIRE 16144 -9616 16096 -9616
WIRE -224 -9552 -224 -9584
WIRE 272 -9552 272 -9584
WIRE 752 -9552 752 -9584
WIRE 1248 -9552 1248 -9584
WIRE 1728 -9552 1728 -9584
WIRE 2224 -9552 2224 -9584
WIRE 2704 -9552 2704 -9584
WIRE 3200 -9552 3200 -9584
WIRE 3968 -9552 3968 -9584
WIRE 4464 -9552 4464 -9584
WIRE 4944 -9552 4944 -9584
WIRE 5440 -9552 5440 -9584
WIRE 5920 -9552 5920 -9584
WIRE 6416 -9552 6416 -9584
WIRE 6896 -9552 6896 -9584
WIRE 7392 -9552 7392 -9584
WIRE 8368 -9536 8368 -9568
WIRE 8864 -9536 8864 -9568
WIRE 9344 -9536 9344 -9568
WIRE 9840 -9536 9840 -9568
WIRE 10320 -9536 10320 -9568
WIRE 10816 -9536 10816 -9568
WIRE 11296 -9536 11296 -9568
WIRE 11792 -9536 11792 -9568
WIRE 12560 -9536 12560 -9568
WIRE 13056 -9536 13056 -9568
WIRE 13536 -9536 13536 -9568
WIRE 14032 -9536 14032 -9568
WIRE 14512 -9536 14512 -9568
WIRE 15008 -9536 15008 -9568
WIRE 15488 -9536 15488 -9568
WIRE 15984 -9536 15984 -9568
WIRE -16 -9520 -16 -9568
WIRE 480 -9520 480 -9568
WIRE 960 -9520 960 -9568
WIRE 1456 -9520 1456 -9568
WIRE 1936 -9520 1936 -9568
WIRE 2432 -9520 2432 -9568
WIRE 2912 -9520 2912 -9568
WIRE 3408 -9520 3408 -9568
WIRE 4176 -9520 4176 -9568
WIRE 4672 -9520 4672 -9568
WIRE 5152 -9520 5152 -9568
WIRE 5648 -9520 5648 -9568
WIRE 6128 -9520 6128 -9568
WIRE 6624 -9520 6624 -9568
WIRE 7104 -9520 7104 -9568
WIRE 7600 -9520 7600 -9568
WIRE 8576 -9504 8576 -9552
WIRE 9072 -9504 9072 -9552
WIRE 9552 -9504 9552 -9552
WIRE 10048 -9504 10048 -9552
WIRE 10528 -9504 10528 -9552
WIRE 11024 -9504 11024 -9552
WIRE 11504 -9504 11504 -9552
WIRE 12000 -9504 12000 -9552
WIRE 12768 -9504 12768 -9552
WIRE 13264 -9504 13264 -9552
WIRE 13744 -9504 13744 -9552
WIRE 14240 -9504 14240 -9552
WIRE 14720 -9504 14720 -9552
WIRE 15216 -9504 15216 -9552
WIRE 15696 -9504 15696 -9552
WIRE 16192 -9504 16192 -9552
WIRE -464 -9456 -464 -9712
WIRE 3536 -9456 -464 -9456
WIRE 3728 -9456 3728 -9712
WIRE 7728 -9456 3728 -9456
WIRE 8128 -9440 8128 -9696
WIRE 12128 -9440 8128 -9440
WIRE 12320 -9440 12320 -9696
WIRE 16320 -9440 12320 -9440
WIRE -368 -9360 -464 -9360
WIRE -224 -9360 -288 -9360
WIRE -112 -9360 -224 -9360
WIRE 128 -9360 -16 -9360
WIRE 272 -9360 208 -9360
WIRE 384 -9360 272 -9360
WIRE 608 -9360 480 -9360
WIRE 752 -9360 688 -9360
WIRE 864 -9360 752 -9360
WIRE 1104 -9360 960 -9360
WIRE 1248 -9360 1184 -9360
WIRE 1360 -9360 1248 -9360
WIRE 1584 -9360 1456 -9360
WIRE 1728 -9360 1664 -9360
WIRE 1840 -9360 1728 -9360
WIRE 2080 -9360 1936 -9360
WIRE 2224 -9360 2160 -9360
WIRE 2336 -9360 2224 -9360
WIRE 2560 -9360 2432 -9360
WIRE 2704 -9360 2640 -9360
WIRE 2816 -9360 2704 -9360
WIRE 3056 -9360 2912 -9360
WIRE 3200 -9360 3136 -9360
WIRE 3312 -9360 3200 -9360
WIRE 3536 -9360 3536 -9456
WIRE 3536 -9360 3408 -9360
WIRE 3824 -9360 3728 -9360
WIRE 3968 -9360 3904 -9360
WIRE 4080 -9360 3968 -9360
WIRE 4320 -9360 4176 -9360
WIRE 4464 -9360 4400 -9360
WIRE 4576 -9360 4464 -9360
WIRE 4800 -9360 4672 -9360
WIRE 4944 -9360 4880 -9360
WIRE 5056 -9360 4944 -9360
WIRE 5296 -9360 5152 -9360
WIRE 5440 -9360 5376 -9360
WIRE 5552 -9360 5440 -9360
WIRE 5776 -9360 5648 -9360
WIRE 5920 -9360 5856 -9360
WIRE 6032 -9360 5920 -9360
WIRE 6272 -9360 6128 -9360
WIRE 6416 -9360 6352 -9360
WIRE 6528 -9360 6416 -9360
WIRE 6752 -9360 6624 -9360
WIRE 6896 -9360 6832 -9360
WIRE 7008 -9360 6896 -9360
WIRE 7248 -9360 7104 -9360
WIRE 7392 -9360 7328 -9360
WIRE 7504 -9360 7392 -9360
WIRE 7728 -9360 7728 -9456
WIRE 7728 -9360 7600 -9360
WIRE 8224 -9344 8128 -9344
WIRE 8368 -9344 8304 -9344
WIRE 8480 -9344 8368 -9344
WIRE 8720 -9344 8576 -9344
WIRE 8864 -9344 8800 -9344
WIRE 8976 -9344 8864 -9344
WIRE 9200 -9344 9072 -9344
WIRE 9344 -9344 9280 -9344
WIRE 9456 -9344 9344 -9344
WIRE 9696 -9344 9552 -9344
WIRE 9840 -9344 9776 -9344
WIRE 9952 -9344 9840 -9344
WIRE 10176 -9344 10048 -9344
WIRE 10320 -9344 10256 -9344
WIRE 10432 -9344 10320 -9344
WIRE 10672 -9344 10528 -9344
WIRE 10816 -9344 10752 -9344
WIRE 10928 -9344 10816 -9344
WIRE 11152 -9344 11024 -9344
WIRE 11296 -9344 11232 -9344
WIRE 11408 -9344 11296 -9344
WIRE 11648 -9344 11504 -9344
WIRE 11792 -9344 11728 -9344
WIRE 11904 -9344 11792 -9344
WIRE 12128 -9344 12128 -9440
WIRE 12128 -9344 12000 -9344
WIRE 12416 -9344 12320 -9344
WIRE 12560 -9344 12496 -9344
WIRE 12672 -9344 12560 -9344
WIRE 12912 -9344 12768 -9344
WIRE 13056 -9344 12992 -9344
WIRE 13168 -9344 13056 -9344
WIRE 13392 -9344 13264 -9344
WIRE 13536 -9344 13472 -9344
WIRE 13648 -9344 13536 -9344
WIRE 13888 -9344 13744 -9344
WIRE 14032 -9344 13968 -9344
WIRE 14144 -9344 14032 -9344
WIRE 14368 -9344 14240 -9344
WIRE 14512 -9344 14448 -9344
WIRE 14624 -9344 14512 -9344
WIRE 14864 -9344 14720 -9344
WIRE 15008 -9344 14944 -9344
WIRE 15120 -9344 15008 -9344
WIRE 15344 -9344 15216 -9344
WIRE 15488 -9344 15424 -9344
WIRE 15600 -9344 15488 -9344
WIRE 15840 -9344 15696 -9344
WIRE 15984 -9344 15920 -9344
WIRE 16096 -9344 15984 -9344
WIRE 16320 -9344 16320 -9440
WIRE 16320 -9344 16192 -9344
WIRE -224 -9296 -224 -9360
WIRE -16 -9296 -16 -9360
WIRE 272 -9296 272 -9360
WIRE 480 -9296 480 -9360
WIRE 752 -9296 752 -9360
WIRE 960 -9296 960 -9360
WIRE 1248 -9296 1248 -9360
WIRE 1456 -9296 1456 -9360
WIRE 1728 -9296 1728 -9360
WIRE 1936 -9296 1936 -9360
WIRE 2224 -9296 2224 -9360
WIRE 2432 -9296 2432 -9360
WIRE 2704 -9296 2704 -9360
WIRE 2912 -9296 2912 -9360
WIRE 3200 -9296 3200 -9360
WIRE 3408 -9296 3408 -9360
WIRE 3968 -9296 3968 -9360
WIRE 4176 -9296 4176 -9360
WIRE 4464 -9296 4464 -9360
WIRE 4672 -9296 4672 -9360
WIRE 4944 -9296 4944 -9360
WIRE 5152 -9296 5152 -9360
WIRE 5440 -9296 5440 -9360
WIRE 5648 -9296 5648 -9360
WIRE 5920 -9296 5920 -9360
WIRE 6128 -9296 6128 -9360
WIRE 6416 -9296 6416 -9360
WIRE 6624 -9296 6624 -9360
WIRE 6896 -9296 6896 -9360
WIRE 7104 -9296 7104 -9360
WIRE 7392 -9296 7392 -9360
WIRE 7600 -9296 7600 -9360
WIRE -112 -9280 -112 -9360
WIRE -64 -9280 -112 -9280
WIRE 384 -9280 384 -9360
WIRE 432 -9280 384 -9280
WIRE 864 -9280 864 -9360
WIRE 912 -9280 864 -9280
WIRE 1360 -9280 1360 -9360
WIRE 1408 -9280 1360 -9280
WIRE 1840 -9280 1840 -9360
WIRE 1888 -9280 1840 -9280
WIRE 2336 -9280 2336 -9360
WIRE 2384 -9280 2336 -9280